reduced_networks/ieee8500/31pct/dss/validation.csv
bus_id,phase,target_v_mag_pu,solved_v_mag_pu,magnitude_error_pu,complex_error_pu
sourcebus,a,1.049999857831033,1.049999860984718,0.000000003153685,0.000000003243461
sourcebus,b,1.049999900013405,1.049999899610063,0.000000000403342,0.000000000467470
sourcebus,c,1.049999942894334,1.049999943817854,0.000000000923520,0.000000003694827
_hvmv_sub_lsb,a,1.049278981486604,1.049627278878130,0.000348297391526,0.000494373554747
_hvmv_sub_lsb,b,1.047757401150244,1.047769776430969,0.000012375280725,0.000020430626770
_hvmv_sub_lsb,c,1.050348556550898,1.050320400621875,0.000028155929023,0.000087024152853
m1009763,a,0.999519761779355,1.002402403171534,0.002882641392178,0.003661350464189
m1009763,b,1.011169495679010,1.009885405793613,0.001284089885398,0.001311976254156
m1009763,c,1.030432391466304,1.030457025589218,0.000024634122914,0.000903293424624
l2673322,b,1.011153174834428,1.009869071564988,0.001284103269440,0.001311986874793
m1069148,c,1.030674434699491,1.030746339394951,0.000071904695460,0.000301889030230
l2673309,c,1.030634552556245,1.030706459328733,0.000071906772488,0.000301877316631
m1069588,b,1.010423106776574,1.009417969250567,0.001005137526007,0.001032958699690
l2804270,b,1.010418130628004,1.009413002438835,0.001005128189169,0.001032950017688
m3036164,b,0.992892706916522,0.991667822930344,0.001224883986179,0.001250514270931
l2935553,b,0.992687991542801,0.991463176560265,0.001224814982536,0.001250435080437
l2748840,b,1.025643362801896,1.025472298632447,0.000171064169449,0.000180721696484
l3085398,a,1.006003199973385,1.008840646479616,0.002837446506231,0.003626870234256
l3085398,b,1.017259234774754,1.015986651931421,0.001272582843334,0.001300650458747
l3085398,c,1.031980321124772,1.032004328666208,0.000024007541435,0.000895557737807
m1026891,a,1.005543068650088,1.008383841222056,0.002840772571967,0.003629240594124
m1026891,b,1.016383661811717,1.015110183354922,0.001273478456796,0.001301492025481
m1026891,c,1.031823406475069,1.031847583945505,0.000024177470436,0.000895918944851
l3216367,a,1.015770005717395,1.018545253603018,0.002775247885623,0.003522415524347
l3216367,b,1.012078264802431,1.010843328080526,0.001234936721904,0.001262269869736
l3216367,c,1.023298539658055,1.023328493953360,0.000029954295306,0.000847768567952
m1069468,a,1.015677687132444,1.018453972543532,0.002776285411089,0.003523448118298
m1069468,b,1.011769240018155,1.010533790802982,0.001235449215173,0.001262728042825
m1069468,c,1.023192385015352,1.023222452217876,0.000030067202523,0.000847958213073
m1047592,a,1.022544746688287,1.025257630393932,0.002712883705645,0.003483829554047
m1047592,b,1.028330874046723,1.027115068058198,0.001215805988525,0.001245108283659
m1047592,c,1.036531104682207,1.036550364812307,0.000019260130100,0.000853082672984
m1047339,a,1.010147057531946,1.011828805402008,0.001681747870062,0.001997466047795
m1047339,b,1.004475356543370,1.003959122432891,0.000516234110479,0.000542685238484
m1047339,c,1.031240448887883,1.031322789276361,0.000082340388477,0.000339235791716
m1026915,a,1.005778433558262,1.008617923085248,0.002839489526987,0.003628620681676
m1026915,b,1.017573446972444,1.016300448101400,0.001272998871043,0.001301097871114
m1026915,c,1.031840900553929,1.031864984245003,0.000024083691074,0.000895947235569
m1026920,a,1.005489360615660,1.008331175132757,0.002841814517097,0.003630442866578
m1026920,b,1.017435348491832,1.016161803088597,0.001273545403235,0.001301645044962
m1026920,c,1.031704578947842,1.031728761748611,0.000024182800770,0.000896292626578
l3254207,a,1.013092584499136,1.015898815364364,0.002806230865229,0.003551848193396
m1069464,a,1.015532254534607,1.018310260524297,0.002778005989689,0.003525121087968
m1069464,b,1.011214247517169,1.009977949358366,0.001236298158803,0.001263478961917
m1069464,c,1.023007512020562,1.023037778744740,0.000030266724178,0.000848237079989
l2729406,c,1.009137383533102,1.009175675198893,0.000038291665791,0.000234875405501
l2897768,c,1.009063405791868,1.009101698866165,0.000038293074297,0.000234857786217
l3649301,a,1.018161930035814,1.020902467517079,0.002740537481265,0.003515908947965
l3649302,a,1.018109108330473,1.020849820937416,0.002740712606943,0.003516064733539
m1089113,b,1.035400260737367,1.034926081756993,0.000474178980374,0.000500664795287
m1047312,a,1.005432043659478,1.007137326647933,0.001705282988455,0.002018459657308
m1047312,b,0.999475529091713,0.998954011169388,0.000521517922325,0.000547603011523
m1047312,c,1.029960485568486,1.030045692306825,0.000085206738338,0.000343615831650
l2822871,a,1.010498214460073,1.013298817209971,0.002800602749897,0.003586624296739
l2822871,b,1.022392498826331,1.021136087396167,0.001256411430164,0.001285199384845
l2822871,c,1.033281715142751,1.033303577122355,0.000021861979604,0.000884636841776
l2973163,b,0.977881938575394,0.977349789929192,0.000532148646202,0.000556375820691
l3728038,a,1.016636308440937,1.019385590984107,0.002749282543170,0.003496392861911
l3728039,a,1.016562546669407,1.019312122314384,0.002749575644977,0.003496669346781
m1069567,b,1.012209648510919,1.011205587124745,0.001004061386174,0.001032155387087
m1069582,b,1.010952170209719,1.009947331618093,0.001004838591626,0.001032738564255
l3216351,a,0.997696493984130,1.000576029156147,0.002879535172017,0.003598485426667
l2952007,c,1.025316476470634,1.025311510281571,0.000004966189063,0.000027715992669
l2861158,c,1.025269166746042,1.025264199791549,0.000004966954494,0.000027714632214
m1026726,a,0.998438272542875,1.001311843997768,0.002873571454893,0.003592428050876
m1026726,b,1.023888309323562,1.022639197230955,0.001249112092607,0.001279904908879
m1026726,c,1.016894802122077,1.016926486502089,0.000031684380012,0.000862992589360
l2730106,a,0.948856598675178,0.950454244938507,0.001597646263330,0.002052012474098
l2730106,b,0.980929641407505,0.980258010302080,0.000671631105425,0.000699799349630
l2730106,c,1.036023150817364,1.036019453458507,0.000003697358857,0.000483203284314
m1026658,a,0.997464810049912,1.000348461201248,0.002883651151336,0.003602316008768
m1026658,b,1.024129699174068,1.022878114150767,0.001251585023301,0.001282678182065
m1026658,c,1.014908614554615,1.014941222580542,0.000032608025927,0.000864080465804
l3172805,a,0.997439506351654,1.000323348373270,0.002883842021617,0.003602515927574
l3048962,a,0.990038676093814,0.991200548316525,0.001161872222712,0.001486365889358
l2991914,a,1.018739537875442,1.021474097134909,0.002734559259467,0.003477777348217
l2991914,b,1.025878110037085,1.024665733554165,0.001212376482920,0.001242078239993
l2991914,c,1.029454603006289,1.029478518922449,0.000023915916161,0.000841296603695
l2973154,a,1.015310353723885,1.018061656154081,0.002751302430196,0.003494347305342
l3010565,c,1.030235190264991,1.030308852195786,0.000073661930795,0.000301577040764
l2897775,c,1.030198119902588,1.030271783829523,0.000073663926936,0.000301565354358
m1125955,c,1.036309518030962,1.036303001215745,0.000006516815217,0.000348109900058
m1069640,b,1.007167607171546,1.006160399273402,0.001007207898144,0.001034523620180
l2804269,b,1.007064628816052,1.006057505947177,0.001007122868875,0.001034439708498
m1026702,a,1.001769389998283,1.004619781747562,0.002850391749278,0.003573515450442
m1026702,b,1.024426424114876,1.023183358099868,0.001243066015008,0.001273652331133
m1026702,c,1.019505719474663,1.019535950086579,0.000030230611916,0.000859983946633
l2783231,b,1.016814065368160,1.015812348817501,0.001001716550659,0.001030461661943
l2748143,a,1.004315933912700,1.006523565042740,0.002207631130040,0.002870054585726
l3251854,a,1.004300134932630,1.006507872668666,0.002207737736035,0.002870164621594
m1069610,b,1.008690877825650,1.007684400487793,0.001006477337857,0.001034000952540
m1069424,a,1.014409936393325,1.017201124980009,0.002791188586684,0.003537875333695
m1069424,b,1.006978935643995,1.005736346406577,0.001242589237419,0.001269067916686
m1069424,c,1.021582680187318,1.021614368719263,0.000031688531945,0.000850332235318
l2935549,a,1.014257735109358,1.017050618685502,0.002792883576143,0.003539482080212
l2935549,b,1.006400341382024,1.005156920751705,0.001243420630318,0.001269796096698
l2935549,c,1.021414280537112,1.021446167119539,0.000031886582427,0.000850587948616
l3235242,c,1.042894580855407,1.042896783855306,0.000002202999899,0.000666887783987
m1026795,a,1.013277947680188,1.016049745106882,0.002771797426695,0.003509130666461
m1026795,b,1.025471563021478,1.024249082780687,0.001222480240791,0.001252478493710
m1026795,c,1.026068400388902,1.026094785239301,0.000026384850400,0.000847343661530
l3030199,a,0.996297806450443,0.997427173412652,0.001129366962209,0.001454690152000
l3030199,b,1.001621415425284,1.001232100329296,0.000389315095987,0.000411239032263
l3030199,c,1.034144823520253,1.034147411260832,0.000002587740578,0.000238454601242
m1069189,a,1.031882704542006,1.033419779542926,0.001537075000920,0.001868087057480
m1069189,b,1.028586616539432,1.028101692179657,0.000484924359775,0.000511331294620
m1069189,c,1.032830361576764,1.032900875063721,0.000070513486957,0.000305965176139
l2860487,c,1.032811549719207,1.032882119599369,0.000070569880161,0.000305952297161
l3102286,b,0.980399553088344,0.979784256487962,0.000615296600383,0.000641739605559
f739845,a,1.003067486832382,1.004784590999844,0.001717104167462,0.002028754786696
f739845,b,0.995771255343600,0.995247189729892,0.000524065613708,0.000549896597774
f739845,c,1.029204922125891,1.029291814163779,0.000086892037888,0.000345590412779
293471,a,1.003058731932934,1.004775901968288,0.001717170035353,0.002028816920662
293471,b,0.995761080115247,0.995236993005427,0.000524087109820,0.000549916525253
293471,c,1.029195342797686,1.029282242252912,0.000086899455226,0.000345602108118
l3198355,b,0.997124312707980,0.996711785494252,0.000412527213728,0.000435411453313
l2860504,a,0.997854417020219,1.000732668906301,0.002878251886083,0.003597252159750
l2860493,a,0.997755632644660,1.000634629223120,0.002878996578460,0.003598031940846
m1026783,a,1.011757458475557,1.014539455597342,0.002781997121784,0.003517402140020
m1026783,b,1.025350946318259,1.024125809008895,0.001225137309364,0.001255211866596
m1026783,c,1.025236170029123,1.025263093269718,0.000026923240595,0.000848981809066
m1026700,a,0.998895076834282,1.001765483549292,0.002870406715010,0.003589872506490
m1026700,b,1.023998363480913,1.022750127013703,0.001248236467210,0.001279004742636
m1026700,c,1.017348883518580,1.017380242323263,0.000031358804684,0.000862700321117
m1089173,c,1.009524235928699,1.009562240995189,0.000038005066489,0.000235025333573
l2935551,c,1.009386997153464,1.009425106622099,0.000038109468635,0.000234971872229
m1026344,a,0.996701478988185,0.998446701834686,0.001745222846500,0.002053148478515
l2879070,a,1.020880622049202,1.023604974252630,0.002724352203428,0.003497352798112
l2879070,b,1.027756211033015,1.026535124099533,0.001221086933482,0.001250389573439
l2879070,c,1.036034022545526,1.036053474446015,0.000019451900490,0.000857290244241
l3216345,a,1.019752372679177,1.022484330945423,0.002731958266246,0.003506355640238
l3216345,b,1.027399866856101,1.026175225315685,0.001224641540417,0.001253935914277
l3216345,c,1.035758417619574,1.035777966437879,0.000019548818305,0.000860165611158
m1069428,a,1.014565047832867,1.017354604331997,0.002789556499130,0.003536262508497
m1069428,b,1.007468443018221,1.006226656658708,0.001241786359513,0.001268352098411
m1069428,c,1.021732165123937,1.021763678426344,0.000031513302407,0.000850029739851
l2991919,a,0.996140272952736,0.997887940022529,0.001747667069794,0.002055450935834
m1026361,a,0.995786329110492,0.997535533131520,0.001749204021029,0.002056898708273
q14412,a,1.008873641147401,1.010561736403770,0.001688095256369,0.002003147209181
q14412,b,1.003160735225360,1.002643047717941,0.000517687507419,0.000544034406741
q14412,c,1.030918549729006,1.031001660498001,0.000083110768996,0.000340427580555
m1047325,a,1.008511488878105,1.010201399553529,0.001689910675424,0.002004771584735
m1047325,b,1.002794904318782,1.002276806618460,0.000518097700322,0.000544416890221
m1047325,c,1.030823252730342,1.030906583478712,0.000083330748369,0.000340770646686
l3048227,a,1.015658221959791,1.018434644388449,0.002776422428658,0.003523567038770
m1069469,a,1.015669501574917,1.018445841501213,0.002776339926296,0.003523494947671
l2785522,b,1.012360147687763,1.011064114047977,0.001296033639786,0.001324593424324
l3216338,b,1.004111429940974,1.002831364112818,0.001280065828156,0.001307033097239
l2973146,b,1.004096288206895,1.002816201402583,0.001280086804313,0.001307049210352
m3037452,a,0.994750816513210,0.996504941994334,0.001754125481124,0.002061580942636
l2973164,a,0.994741234681895,0.996495395781672,0.001754161099777,0.002061614051015
l3120376,a,1.012111796878068,1.014896300081632,0.002784503203564,0.003564034601904
m1026925,a,1.011875614311034,1.014661641123586,0.002786026812552,0.003565314502582
l3141393,c,1.042829511589206,1.042831712681278,0.000002201092072,0.000666847136001
m1026940,b,1.014563172186566,1.013279241904873,0.001283930281694,0.001312119647415
m1047471,b,0.987336022693925,0.986076264893819,0.001259757800106,0.001283082092877
l3216349,b,0.987333125113732,0.986073372103061,0.001259753010671,0.001283077578644
m1047401,a,0.990002639626072,0.992925877820488,0.002923238194416,0.003635157813998
l2748132,a,0.989991354564223,0.992914660007540,0.002923305443317,0.003635215053380
l3122820,a,0.994097308862026,0.996996611761470,0.002899302899444,0.003615004138847
l3141398,a,0.994088843945838,0.996988195869751,0.002899351923913,0.003615053976844
l3048968,c,1.019682543677121,1.019709580827323,0.000027037150202,0.000239998857938
m1069224,c,1.027426137756903,1.027503897406905,0.000077759650001,0.000300321740274
l2766746,c,1.021111258357318,1.021139197548038,0.000027939190720,0.000909855567952
m1027073,c,1.020817498304645,1.020845432751476,0.000027934446830,0.000909592700376
m1069181,a,1.026226592671846,1.027799219825825,0.001572627153979,0.001900207519215
l2973151,a,1.026002814261014,1.027576591821004,0.001573777559990,0.001901300768006
l3179682,c,1.031090958951221,1.031103550868763,0.000012591917542,0.000246988204543
l2786274,c,1.031080648045978,1.031093239905741,0.000012591859763,0.000246985728668
l3066816,a,0.997571173788151,1.000451192231104,0.002880018442953,0.003598916410305
m1108529,a,1.031199611403901,1.033101158583704,0.001901547179803,0.002451312887783
m1108529,b,1.035742365516466,1.034941238993315,0.000801126523151,0.000831869320900
m1108529,c,1.042327011298185,1.042324936191543,0.000002075106642,0.000555543746640
m1108532,a,1.030868273456191,1.032773714668160,0.001905441211969,0.002456541430997
m1108532,b,1.035534922823499,1.034731326394658,0.000803596428841,0.000834350795129
m1108532,c,1.042337721803439,1.042335702869376,0.000002018934063,0.000557577085856
l2766723,a,0.997724717762584,1.000603893163703,0.002879175401119,0.003598213549464
l3122822,a,0.997705560967866,1.000584882749922,0.002879321782057,0.003598343674636
l2673312,a,0.997850375688806,1.000754006842739,0.002903631153933,0.003679367201582
l3235247,a,0.997826794672596,1.000730561886817,0.002903767214220,0.003679503172203
m1166391,c,1.027365953223192,1.027359128790694,0.000006824432497,0.000027234735345
l3254873,c,1.026810357114391,1.026804001997697,0.000006355116694,0.000027276710908
l2861157,c,1.032808369024069,1.032796613655006,0.000011755369063,0.000027256350615
m1047346,a,1.012122145263278,1.013794046581940,0.001671901318661,0.001988680351102
m1047346,b,1.006288835045076,1.005774955392915,0.000513879652161,0.000540478653600
m1047346,c,1.031691485454752,1.031772663957206,0.000081178502453,0.000337264579222
m1047345,a,1.011596521650591,1.013271067242996,0.001674545592405,0.001991048907259
m1047345,b,1.005834598712551,1.005320084479497,0.000514514233054,0.000541075176195
m1047345,c,1.031574500473415,1.031655984686220,0.000081484212804,0.000337800279614
l2822873,b,1.013486799141931,1.012483885609518,0.001002913532413,0.001031247284430
m1108328,c,1.027810990504046,1.027827859095372,0.000016868591326,0.000244883915370
l2875754,c,1.027799705830694,1.027816574402305,0.000016868571611,0.000244881169727
l2786204,c,1.041438604897052,1.041420748976825,0.000017855920227,0.000028519838749
m1009726,a,0.998837862550348,1.001724917762077,0.002887055211729,0.003665089474357
m1047702,a,1.021328678346627,1.024045915241955,0.002717236895328,0.003473239575708
l2767340,a,0.962108666989925,0.963561745645152,0.001453078655227,0.001860015992696
l2767340,b,0.987116364814277,0.986534218986117,0.000582145828160,0.000608880484393
l2767340,c,1.036186355814332,1.036180985035382,0.000005370778950,0.000407754303084
m1047457,b,0.988436290355161,0.987177343270281,0.001258947084881,0.001282506103319
l2710546,b,0.988310865427996,0.987051820711575,0.001259044716421,0.001282576249120
l2674027,a,0.939891260642771,0.941591130293317,0.001699869650546,0.002189240623098
l2674027,b,0.976329908696756,0.975593797283626,0.000736111413129,0.000764995174683
l2674027,c,1.035924914529972,1.035922510045078,0.000002404484895,0.000537199654483
l2692633,a,0.938889656043098,0.940601252448510,0.001711596405413,0.002205001769352
l2692633,b,0.975766670281575,0.975023136101678,0.000743534179897,0.000772482913160
l2692633,c,1.035919176879404,1.035916912630407,0.000002264248997,0.000543385908933
l2674051,a,0.996415648058654,0.997571337403059,0.001155689344405,0.001494062595621
m1069135,a,1.015541267318086,1.017193699815303,0.001652432497217,0.001971026838846
m1069135,b,1.009234832884345,1.008725853167881,0.000508979716465,0.000535734087345
m1069135,c,1.032614249816002,1.032693410706257,0.000079160890256,0.000333111087871
m1047534,a,1.037654823361866,1.040254794900417,0.002599971538551,0.003354957936709
m1047534,b,1.038890223291719,1.037725589305815,0.001164633985904,0.001194747765422
m1047534,c,1.043325269093304,1.043339724669931,0.000014455576627,0.000817103354103
l3097861,c,1.042432807901653,1.042432329963473,0.000000477938180,0.000600611386769
m1069560,b,1.012938381996688,1.011934799155375,0.001003582841313,0.001031792836304
l2973153,a,1.022829282794947,1.025537515680920,0.002708232885972,0.003467153822730
l2973153,b,1.021278423141296,1.020068015258598,0.001210407882698,0.001238877252626
l2973153,c,1.037914947013729,1.037935930280500,0.000020983266771,0.000845658947553
l2898515,c,1.040287215288094,1.040272330120416,0.000014885167678,0.000131972480220
m1166387,c,1.040260943048371,1.040246133391549,0.000014809656822,0.000131932171441
m1047442,b,0.992623900076308,0.991368482953535,0.001255417122773,0.001279742461505
l3235250,b,0.992614654686637,0.991359243797407,0.001255410889230,0.001279736074610
m1142871,a,0.985928934133820,0.987134876407647,0.001205942273826,0.001541898040698
m1142871,b,0.999993333139938,0.999558191959084,0.000435141180854,0.000458537834704
m1142871,c,1.036802063525216,1.036794479095751,0.000007584429465,0.000284125799593
m1142874,a,0.985200931982581,0.986414639236479,0.001213707253898,0.001551718697918
m1142874,b,0.999575914582440,0.999136275406536,0.000439639175904,0.000463178130440
m1142874,c,1.036764475779034,1.036756934264365,0.000007541514668,0.000287925703142
l2955081,a,0.996494319365596,0.997654068228558,0.001159748862962,0.001500244412896
l2955081,b,0.998190332261667,0.997785064199529,0.000405268062138,0.000427801395602
l2955081,c,1.031432831754361,1.031444372343906,0.000011540589544,0.000246171989997
m1108315,a,0.996542770685324,0.997705849438304,0.001163078752980,0.001505273932609
m1108315,b,0.997819943191171,0.997412913936419,0.000407029254752,0.000429627506718
m1108315,c,1.031121506638591,1.031134064931361,0.000012558292770,0.000247006648563
l2973162,a,0.996712185291217,0.998457231669371,0.001745046378153,0.002052822636684
l2973162,b,0.986246740347338,0.985716658013447,0.000530082333891,0.000555184131914
l2973162,c,1.030203203778660,1.030293573173504,0.000090369394844,0.000351020508220
m1026333,a,0.996629007411492,0.998374319046485,0.001745311634993,0.002052956284404
m1026333,b,0.985725614054191,0.985195468312695,0.000530145741496,0.000555206369131
m1026333,c,1.030325657171103,1.030416083494487,0.000090426323384,0.000351041318471
m1009832,b,1.005283029675016,1.004003330064729,0.001279699610287,0.001306803540704
l2860479,b,1.005277788057559,1.003998091650045,0.001279696407514,0.001306800199406
m1026854,a,1.014218568513895,1.016990323048730,0.002771754534836,0.003553470286040
m1026854,b,1.025173313321808,1.023930136225324,0.001243177096484,0.001272325700391
m1026854,c,1.034333253664562,1.034353812270326,0.000020558605764,0.000874933772365
m1026485,b,1.000170322729747,0.999670014972262,0.000500307757484,0.000526868307888
d6413567-3_int,a,1.029266070269171,1.030820514321945,0.001554444052774,0.001883528330834
d6413567-3_int,b,1.026359780746931,1.025871121303464,0.000488659443466,0.000515129343611
d6413567-3_int,c,1.032613032518941,1.032684890710141,0.000071858191200,0.000310074396792
e182724,a,1.029258586554803,1.030813106833324,0.001554520278521,0.001883618333946
e182724,b,1.026351064398271,1.025862405730454,0.000488658667818,0.000515127701088
e182724,c,1.032613805595831,1.032685667684545,0.000071862088714,0.000310072802094
l2933135,a,0.951757281829972,0.953322068959740,0.001564787129768,0.002008125278293
l2933135,b,0.982330939778906,0.981679840862101,0.000651098916805,0.000678956243301
l2933135,c,1.036106587275967,1.036102484982287,0.000004102293680,0.000465921409407
l2729414,a,1.001759905942241,1.004610390298045,0.002850484355803,0.003573604837519
l2729414,b,1.024415148482866,1.023172041654321,0.001243106828544,0.001273691235030
l2729414,c,1.019495259242284,1.019525496971271,0.000030237728987,0.000860000063986
l2729430,b,1.010432811488757,1.009153866808577,0.001278944680179,0.001306570905135
l2766742,b,1.009462804576440,1.008183682576921,0.001279121999518,0.001306646917319
l2860483,b,0.993132953446910,0.991907866068473,0.001225087378438,0.001250712708050
l2860490,a,1.013456978599795,1.015122046706133,0.001665068106338,0.001982544091273
l2860490,b,1.007481515855859,1.006969241210240,0.000512274645619,0.000538968167066
l2860490,c,1.032102609664611,1.032182997522275,0.000080387857664,0.000335940232371
l3104134,a,1.012680428568149,1.014349481728535,0.001669053160385,0.001986130878790
l3104134,b,1.006782597736992,1.006269397902068,0.000513199834924,0.000539838211300
l3104134,c,1.031851288999288,1.031932135931475,0.000080846932187,0.000336698461045
m1089118,a,1.037569380026070,1.039064539818541,0.001495159792472,0.001831101221449
m1089118,b,1.034536862683252,1.034060035474719,0.000476827208532,0.000503173696129
m1089118,c,1.036793426104804,1.036855902221577,0.000062476116772,0.000297519375479
l3048208,a,1.037560631106847,1.039055826440899,0.001495195334053,0.001831133855735
m1108505,a,0.942560844957673,0.944229531893799,0.001668686936126,0.002147494895256
m1108505,b,0.977854999375945,0.977138549080532,0.000716450295413,0.000745157309295
m1108505,c,1.035918169082683,1.035915398115896,0.000002770966787,0.000520813615146
l2955047,a,0.941744690895830,0.943422891552848,0.001678200657019,0.002160216605995
l2955047,b,0.977389619234784,0.976667178417665,0.000722440817120,0.000751203310724
l2955047,c,1.035921718588670,1.035919059992430,0.000002658596240,0.000525808483167
m1089148,a,0.976862876571204,0.978166386943573,0.001303510372369,0.001628589751918
l2766721,a,0.976847407075504,0.978151013869211,0.001303606793707,0.001628678015327
l3029183,b,0.986804838010613,0.985544703267609,0.001260134743004,0.001283347924398
l2710512,b,0.989155553179879,0.987926426888150,0.001229126291728,0.001254050034161
m1047828,b,0.988541052187856,0.987311634003598,0.001229418184258,0.001254264430769
l3197645,a,1.011498942338414,1.013174090563741,0.001675148225327,0.001991668358916
m1069192,a,1.026886428603758,1.028455703342968,0.001569274739210,0.001897026246845
l3235253,a,1.026867639551815,1.028437024022492,0.001569384470677,0.001897146992640
l3214071,a,0.974701075735439,0.976025688403935,0.001324612668496,0.001693219951075
l3214071,b,0.993679831157054,0.993175094699516,0.000504736457538,0.000530042857987
l3214071,c,1.036368001622866,1.036361295994134,0.000006705628732,0.000342769389375
m1125952,a,0.973675662736391,0.975011059395994,0.001335396659603,0.001707106897374
m1125952,b,0.993108812043529,0.992597661449624,0.000511150593904,0.000536601864310
m1125952,c,1.036336114623458,1.036329520673248,0.000006593950209,0.000348149005577
m1027101,b,0.988675764944918,0.987451845129097,0.001223919815822,0.001249296104407
l2860480,b,0.988632752718142,0.987408774911482,0.001223977806659,0.001249340804526
l2710517,a,0.994377571764704,0.997275110758448,0.002897538993743,0.003613403296519
m1026646,a,0.994175562736288,0.997074339134976,0.002898776398688,0.003614459022424
l2935547,b,1.006972341294314,1.005965389734724,0.001006951559590,0.001034282604954
m1026931,a,1.011205598977460,1.013995867781745,0.002790268804286,0.003568869447160
l3216336,a,1.011134137011874,1.013924864291195,0.002790727279321,0.003569255189979
l3142049,a,0.947010984600741,0.948629487387527,0.001618502786787,0.002079949874174
l3142049,b,0.980031021637301,0.979346298112508,0.000684723524792,0.000713067901467
l3142049,c,1.035985010545063,1.035981578257486,0.000003432287576,0.000494200250378
m1069169,a,1.027597168220424,1.029162763810328,0.001565595589904,0.001893530058012
m1069169,b,1.024933621800553,1.024442622733924,0.000490999066629,0.000517506282511
m1069169,c,1.032486325686180,1.032559018674391,0.000072692988211,0.000312647668481
l3010556,a,1.026644739784824,1.028217191902969,0.001572452118145,0.001899587849802
l3010556,b,1.023729859194020,1.023237475153038,0.000492384040982,0.000518921831610
l3010556,c,1.032421091251191,1.032494319962785,0.000073228711594,0.000314231583960
l2991933,c,1.030460383039566,1.030485030513569,0.000024647474002,0.000898894744344
l3122837,c,1.030367186673400,1.030391832450750,0.000024645777350,0.000898813469109
l2691936,a,1.011059003454549,1.013850191302925,0.002791187848376,0.003569638873755
l2897772,a,1.004589267690351,1.006298649917623,0.001709382227272,0.002022346724058
l2766732,b,1.000199189828906,0.999698855139087,0.000500334689819,0.000526898599570
l2989564,b,1.007024030792705,1.006016984726128,0.001007046066578,0.001034368251661
m1126016,a,0.940443351593548,0.942122582447115,0.001679230853567,0.002156594230708
m1026330,a,0.996498735565681,0.998244352502588,0.001745616936907,0.002053011879847
m1026330,b,0.984710050752278,0.984179830544940,0.000530220207338,0.000555203499508
m1026330,c,1.030578492538280,1.030668974800341,0.000090482262060,0.000351035948625
l2766726,b,0.984703515024244,0.984173311169438,0.000530203854806,0.000555189242995
m1108381,a,0.954408939155077,0.955917511663042,0.001508572507965,0.001927767406919
m1108381,b,0.981282842810786,0.980667682218554,0.000615160592231,0.000641877415663
m1108381,c,1.035282078415532,1.035278185003102,0.000003893412430,0.000433130992645
l3254237,a,0.954240902712449,0.955750152649798,0.001509249937350,0.001928284426441
l3254237,b,0.981172081227886,0.980556736356229,0.000615344871657,0.000642049442130
l3254237,c,1.035190432166571,1.035186611995569,0.000003820171001,0.000433207000407
l2804262,a,1.013841586759496,1.016615608964931,0.002774022205435,0.003555345791311
l2841639,a,1.013508886984319,1.016284911640270,0.002776024655951,0.003557002749815
l2708744,b,0.981983003564825,0.981368815218714,0.000614188346112,0.000640920659155
m1069519,a,1.004839012556833,1.007043887447040,0.002204874890207,0.002867284557162
m1069519,b,1.019156402235814,1.018156344918302,0.001000057317512,0.001029478799393
m1069519,c,1.044182448895302,1.044187784326788,0.000005335431485,0.000717361614607
l2897790,c,1.044777758067614,1.044783662771516,0.000005904703902,0.000717859411255
l2935566,c,1.044759471137498,1.044765375347861,0.000005904210363,0.000717847073795
l3216337,a,1.011197707491177,1.013988019938172,0.002790312446995,0.003568912717935
m1069548,c,1.044808206636931,1.044814112162637,0.000005905525706,0.000717879953641
l3120503,a,0.987161652512466,0.990149062202222,0.002987409689755,0.003753250816281
m1089145,a,0.977242002725690,0.978543310343576,0.001301307617886,0.001626445223080
m1089145,b,0.976877107970999,0.976445668781963,0.000431439189036,0.000455308335120
m1089145,c,1.016081229019160,1.016121985355639,0.000040756336479,0.000272884203099
l3215385,a,0.977230582335474,0.978531911548085,0.001301329212611,0.001626460789831
l3215385,b,0.976859813065315,0.976428360405462,0.000431452659853,0.000455319744109
l3215385,c,1.016071404425055,1.016112162188429,0.000040757763375,0.000272886264977
m1026852,a,1.013104524670865,1.015884789763668,0.002780265092803,0.003563317997323
m1026852,b,1.024429378252353,1.023182277990691,0.001247100261663,0.001276159347283
m1026852,c,1.034017605366903,1.034038511030817,0.000020905663914,0.000877860533599
m1069420,a,1.014097350533201,1.016892057380318,0.002794706847117,0.003541222540327
m1069420,b,1.005797612332749,1.004553323329103,0.001244289003646,0.001270564833124
m1069420,c,1.021219861742275,1.021251944739235,0.000032082996960,0.000850864960455
l3157708,c,1.032120776014323,1.032142894352233,0.000022118337909,0.000838395409372
m1047326,a,1.008505152776927,1.010195098385173,0.001689945608246,0.002004810077041
e182732,a,1.007017030858700,1.009831474779537,0.002814443920837,0.003543992487065
e182732,b,1.024881466232830,1.023647769475555,0.001233696757276,0.001263999316725
e182732,c,1.022572952022200,1.022601503242710,0.000028551220510,0.000854216046366
l3048205,c,1.018260745956321,1.018289289403622,0.000028543447302,0.000239276978222
m1108361,c,1.016448598602218,1.016479195404753,0.000030596802534,0.000238341008714
m3036169,a,0.994822517112811,0.997717335847773,0.002894818734963,0.003611088219478
l2673317,a,0.994810706363299,0.997705597173296,0.002894890809997,0.003611149527233
l3178981,b,1.008297826977490,1.007789508876527,0.000508318100963,0.000535046993929
m1047368,b,1.006648964402765,1.006141959912630,0.000507004490135,0.000533705044960
l2879794,a,0.995698763792984,0.996823089049137,0.001124325256153,0.001446050578825
m1142811,a,0.995659062900816,0.996783540552928,0.001124477652111,0.001446186470313
m1069565,b,1.013514064451694,1.012511126831509,0.001002937620185,0.001031270877616
l2785536,b,1.013473989510426,1.012471126585641,0.001002862924785,0.001031201468521
l3104114,b,1.007360296331358,1.006080735750083,0.001279560581275,0.001306871558178
m1009824,b,1.006928658644742,1.005649046033922,0.001279612610821,0.001306882085754
l2673308,a,1.016240881423489,1.019010920958262,0.002770039534773,0.003517260018088
l2673308,b,1.013674315264496,1.012442007143229,0.001232308121268,0.001259939738493
l2673308,c,1.023802359763562,1.023831711791016,0.000029352027454,0.000846821969118
l2991939,a,1.015982313824456,1.018755200243581,0.002772886419125,0.003520073555167
l2991939,b,1.012794757297323,1.011561003453894,0.001233753843429,0.001261218172368
l2991939,c,1.023531590365058,1.023561277190468,0.000029686825409,0.000847338520784
l2916606,c,1.020976475283984,1.021002193626095,0.000025718342110,0.000240649345456
l2822864,c,1.020962608730826,1.020988368985761,0.000025760254935,0.000240634695277
m1209822,c,1.035487977313035,1.035474435458085,0.000013541854950,0.000027290597345
m1069550,b,1.014106224966928,1.013103333805139,0.001002891161789,0.001031278591660
m1069551,b,1.014055016882807,1.013052100836009,0.001002916046798,0.001031296424459
l3141397,b,0.993113079500432,0.991887965452254,0.001225114048178,0.001250733227338
l3649299,a,1.018335497557447,1.021075488184254,0.002739990626806,0.003515429876652
m3772794,a,1.018328184917293,1.021068198081038,0.002740013163745,0.003515449482838
l3048887,b,0.988730310710127,0.988169076060461,0.000561234649665,0.000587637959850
m1047824,b,0.989522284871250,0.988298452709813,0.001223832161437,0.001249286675473
m1047834,b,0.988907129886055,0.987683355135583,0.001223774750473,0.001249184128726
l2879072,b,0.994969244030736,0.993715756372827,0.001253487657910,0.001278171923211
m1047441,b,0.992966215196413,0.991711091850569,0.001255123345844,0.001279502037637
m1108274,b,1.033008127233654,1.032538978058058,0.000469149175596,0.000496360517254
l3235244,a,1.012505041612437,1.015315256044236,0.002810214431799,0.003555285543723
m1069398,a,1.012451089553556,1.015261680830855,0.002810591277299,0.003555612583152
l2685805,a,1.004108649356661,1.006959719756429,0.002851070399768,0.003636674603834
l2786273,b,1.032911084190218,1.032442067591272,0.000469016598946,0.000496244964879
m1108278,b,1.032838201908926,1.032369176489453,0.000469025419473,0.000496247134525
l3254238,a,1.003766916355231,1.005480523612482,0.001713607257251,0.002025701671526
l3254238,b,0.996835861237982,0.996312542482636,0.000523318755346,0.000549222385894
l3254238,c,1.029424974044391,1.029511368486397,0.000086394442006,0.000344998468193
m1047303,a,1.003072857296550,1.004789921349349,0.001717064052799,0.002028716581338
m1047303,b,0.995777484592029,0.995253431774006,0.000524052818023,0.000549884793076
m1047303,c,1.029210803686679,1.029297691341804,0.000086887655125,0.000345583623850
l2897554,c,1.037205787516696,1.037226137577505,0.000020350060809,0.000844408178378
m1069627,b,1.006784067500394,1.005776153920867,0.001007913579527,0.001035117823574
l2897791,b,1.006581841529636,1.005573706432157,0.001008135097479,0.001035297649115
m1089097,b,1.033547402242202,1.033077115527728,0.000470286714473,0.000497332467935
l2936214,a,0.947698610377393,0.949309244671673,0.001610634294280,0.002069380910697
l3066810,c,1.021930564900404,1.021961721514465,0.000031156614061,0.000849368508186
l2897769,c,1.021784668525619,1.021815823349143,0.000031154823523,0.000849246792410
m1209753,b,1.025770916326704,1.025599518362434,0.000171397964270,0.000180979310071
l2858166,a,1.029411609040832,1.032074046243813,0.002662437202980,0.003425952253005
l2858166,b,1.032466905296267,1.031273713633048,0.001193191663220,0.001222695620936
l2858166,c,1.039183636072656,1.039201427456213,0.000017791383556,0.000836213600956
m1142843,a,0.996765294051893,0.997855693740891,0.001090399688998,0.001397136819464
m1142843,b,1.006248412975120,1.005879119177546,0.000369293797574,0.000390319585996
m1142843,c,1.037509132649026,1.037501136968829,0.000007995680196,0.000228438489420
l3081380,a,0.996720166333626,0.997814975902529,0.001094809568903,0.001403671146621
l3081380,b,1.005720925625657,1.005349358591929,0.000371567033728,0.000392696684600
l3081380,c,1.037102378066161,1.037095584538894,0.000006793527267,0.000229545309820
l2804272,b,1.013996871884761,1.012993990130187,0.001002881754574,0.001031261362708
l2841641,b,1.013984691923668,1.012981832071397,0.001002859852271,0.001031241546265
m1069393,b,0.998332032755116,0.997080662360277,0.001251370394838,0.001276519417483
m1069408,b,0.997620585740517,0.996368841274915,0.001251744465602,0.001276801840462
l3216348,a,0.990364129537924,0.993285487103112,0.002921357565188,0.003633618486057
l2841627,a,0.990135289346996,0.993057865805110,0.002922576458115,0.003634621521755
l2916599,a,1.011870466176231,1.014656530919441,0.002786064743209,0.003565347289068
m1047447,b,0.990829128020026,0.989572121282579,0.001257006737448,0.001281045725438
l2954349,b,0.990809862302876,0.989552828947734,0.001257033355142,0.001281068436922
l3235246,b,0.989510868251081,0.988281935937019,0.001228932314061,0.001253903313299
l2711224,b,0.999605002304427,0.999208978445909,0.000396023858518,0.000418237107686
l3122817,c,1.031818282069890,1.031842472554589,0.000024190484699,0.000895909878324
m1186061,a,1.022904087779556,1.023630715145166,0.000726627365611,0.000942794581914
m1186061,b,1.026069527219983,1.025896659057243,0.000172868162740,0.000182392231561
m1186061,c,1.042801859681051,1.042782524149890,0.000019335531160,0.000070476874322
l2861223,b,1.026056490003051,1.025883619412647,0.000172870590404,0.000182393913618
m1069130,a,1.015338309609143,1.016991868773720,0.001653559164577,0.001972114227569
l3085396,a,1.015296868798616,1.016950655595631,0.001653786797016,0.001972333364149
e182730,a,1.008452792189071,1.011257415247264,0.002804623058193,0.003535870204479
m1069417,a,1.013527170614542,1.016328606457710,0.002801435843167,0.003547486944332
m1069417,b,1.003412432452655,1.002164951022362,0.001247481430293,0.001273362542222
m1069417,c,1.020468927387452,1.020501770929754,0.000032843542301,0.000851749590653
m1026987,b,0.992174148573536,0.990949588479794,0.001224560093742,0.001250162666560
m1142832,a,0.996617530023787,0.997721462559285,0.001103932535498,0.001417159265407
m1142832,b,1.004613849735557,1.004237642463192,0.000376207272365,0.000397546662027
m1142832,c,1.036258775988622,1.036254488708495,0.000004287280127,0.000231777569072
l3160865,a,0.996571702572709,0.997678309303917,0.001106606731208,0.001421119783578
l3160865,b,1.004304041078513,1.003926443203536,0.000377597874977,0.000398999452347
l3160865,c,1.036045164266430,1.036041587412694,0.000003576853736,0.000232491141805
l2673323,c,1.030407619198738,1.030432251870399,0.000024632671660,0.000900319614369
l2822869,a,1.017039917625242,1.019786079954559,0.002746162329317,0.003487137851241
l2822869,b,1.025737198252087,1.024521839945664,0.001215358306423,0.001245149161246
l2822869,c,1.028384081591718,1.028408779876644,0.000024698284926,0.000843026505934
m1026808,a,1.015725545967436,1.018480678777319,0.002755132809883,0.003494374142288
m1026808,b,1.025614948273996,1.024397281674987,0.001217666599009,0.001247526669750
m1026808,c,1.027534100890665,1.027559418779469,0.000025317888804,0.000844338834175
m1047825,b,0.987533851816719,0.986303332649982,0.001230519166737,0.001255179662575
m1069731,b,0.987309812111323,0.986078987384424,0.001230824726900,0.001255438250727
l2729410,c,1.027526857217160,1.027552174988539,0.000025317771379,0.000844332868685
l3178978,a,0.993506867787713,0.996409655407739,0.002902787620026,0.003617866388446
m1069384,a,1.012699649268771,1.015508475014291,0.002808825745520,0.003554075904898
l3066805,a,1.012686746073413,1.015495667150866,0.002808921077453,0.003554158836294
m1047319,c,1.028495645049380,1.028582581802685,0.000086936753305,0.000345344167204
m1047318,c,1.028440494798334,1.028527435342368,0.000086940544034,0.000345325701391
l3216358,a,1.010131541482417,1.012932167746647,0.002800626264229,0.003584326223322
m1026826,a,1.009947812890249,1.012749482073779,0.002801669183530,0.003585156789609
m1047763,a,1.015666230615484,1.018415216134734,0.002748985519250,0.003492365099783
m1047763,b,0.997669880810960,0.996444708236666,0.001225172574294,0.001251169223836
m1047763,c,1.042717350318957,1.042742147068027,0.000024796749070,0.000851506155160
m1108540,c,1.041513080207993,1.041510980071092,0.000002100136901,0.000555118538255
l2804259,a,0.996605912055242,0.998351370320938,0.001745458265696,0.002053119216309
m1047513,a,1.022272159915962,1.024982630531977,0.002710470616015,0.003458913689796
m1047513,b,1.027387302644033,1.026181583928309,0.001205718715724,0.001235338046086
m1047513,c,1.032131648193615,1.032153738931240,0.000022090737625,0.000838414048395
m1047507,a,1.020383186887299,1.023106515904021,0.002723329016723,0.003468740585811
m1047507,b,1.026014762195429,1.024805256684841,0.001209505510588,0.001239121621591
m1047507,c,1.030513098260658,1.030536184464948,0.000023086204290,0.000839661689854
m1142863,a,0.991344162049815,0.992492242308821,0.001148080259005,0.001469061346678
m1142863,b,1.003111405575686,1.002709551264097,0.000401854311589,0.000424118121529
m1142863,c,1.037096732007667,1.037088895741019,0.000007836266648,0.000255957630125
m1125916,b,0.999981365946694,0.999585156872920,0.000396209073773,0.000418412182959
l2879767,b,0.999961097977408,0.999564920736656,0.000396177240752,0.000418384730282
l3066809,c,1.022959153025609,1.022988308088507,0.000029155062898,0.000845180659735
m1069487,c,1.022759350231720,1.022788544350468,0.000029194118748,0.000845001047311
m1142818,a,0.996284153238452,0.997406699094054,0.001122545855602,0.001444563516509
m1142818,b,1.002432427253339,1.002046648469905,0.000385778783434,0.000407549339829
m1142818,c,1.034748381242334,1.034749055437394,0.000000674195060,0.000236719100433
q14733,a,1.044488845932184,1.047036486451304,0.002547640519120,0.003295620020374
q14733,b,1.044093048276217,1.042952275577678,0.001140772698538,0.001171307974270
q14733,c,1.047129036037940,1.047140713964595,0.000011677926655,0.000801295073615
m1047568,a,1.044092389058111,1.046643065295880,0.002550676237769,0.003299054640254
m1047568,b,1.043794798602641,1.042652645703362,0.001142152899279,0.001172665612446
m1047568,c,1.046907208462918,1.046919042894976,0.000011834432058,0.000802212198792
l2954338,b,1.006738908749865,1.005459279150726,0.001279629599139,0.001306883596445
m1047409,a,0.990617999245515,0.993537983911784,0.002919984666269,0.003632476756239
l2841648,a,0.990566477460295,0.993486767012396,0.002920289552101,0.003632735906829
m1089177,c,1.009220977889498,1.009259171208646,0.000038193319148,0.000234915790228
l2954347,b,1.014662472426432,1.013378582156961,0.001283890269471,0.001312088317467
l3027124,c,1.026502321123371,1.026496091685122,0.000006229438249,0.000027284884059
m1026824,a,1.002188647306850,1.005053654844212,0.002865007537362,0.003646940615577
m1026824,b,1.011111076820498,1.009831353584254,0.001279723236245,0.001307489507589
m1026824,c,1.030652565282704,1.030677216283846,0.000024651001142,0.000899062351875
m1047453,b,0.988869261650282,0.987610638052345,0.001258623597937,0.001282275865349
l2691948,b,0.988858321397945,0.987599715815545,0.001258605582400,0.001282258889814
m1089205,a,1.015682922924123,1.017766045103383,0.002083122179259,0.002698827677903
l2710542,b,1.010761459156569,1.009482589903393,0.001278869253176,0.001306531345228
m3032980,a,1.023298781324510,1.024021821933578,0.000723040609068,0.000939327107196
m3032980,b,1.026553521587980,1.026382048245842,0.000171473342138,0.000180867408081
m3032980,c,1.043161169410820,1.043141829814155,0.000019339596665,0.000069126874250
l2917330,a,0.995592167505223,0.996716849355188,0.001124681849965,0.001446361957172
l2861222,a,0.995546974395929,0.996671711414671,0.001124737018743,0.001446396296240
m1047490,a,1.018076678834728,1.020819677391987,0.002742998557259,0.003490354738324
m1047490,b,1.022374705886736,1.021155566152141,0.001219139734595,0.001248227184549
m1047490,c,1.028137904420235,1.028162743641255,0.000024839221020,0.000844126707449
l2878848,c,1.037408553836912,1.037428908114786,0.000020354277874,0.000844572806664
m1047486,a,1.017120017816216,1.019876835335470,0.002756817519254,0.003504289173820
m1047486,b,1.018102967242583,1.016877128324849,0.001225838917734,0.001254227110016
m1047486,c,1.025836744553221,1.025863914130119,0.000027169576898,0.000845502420713
l3177665,a,1.017113565368735,1.019870401681214,0.002756836312479,0.003504306095623
l2805036,b,1.032828815750982,1.032359803158827,0.000469012592155,0.000496235955904
l2692654,a,0.996259918579213,0.997397880102405,0.001137961523192,0.001467417308568
m1047672,a,1.022247610626985,1.024959423641316,0.002711813014331,0.003469598157791
m1047672,b,1.019917713954110,1.018706118333392,0.001211595620717,0.001239933258721
m1047672,c,1.038082675198278,1.038103963280076,0.000021288081798,0.000846203401845
m1125919,a,0.996308665926165,0.997446530334839,0.001137864408675,0.001467322019565
m1125919,b,1.000606922966319,1.000213189610154,0.000393733356166,0.000415838830711
m1125919,c,1.033430579315973,1.033435576348174,0.000004997032201,0.000240624613018
m1142819,a,0.996328478796901,0.997448090326603,0.001119611529702,0.001440183849233
m1142819,b,1.002756425982388,1.002372196764920,0.000384229217469,0.000405935418701
m1142819,c,1.034990508591193,1.034990387411142,0.000000121180052,0.000235916419870
m3036172,b,1.026300107110869,1.026128151671602,0.000171955439268,0.000181442189901
m1089143,a,0.977295176583686,0.978596382263929,0.001301205680242,0.001626369734353
m1089143,b,0.976946981675624,0.976515600778167,0.000431380897457,0.000455257216945
m1089143,c,1.016132815494671,1.016173567230903,0.000040751736232,0.000272874036274
l3141400,a,0.977282191198173,0.978583440099923,0.001301248901750,0.001626407738932
m1069481,a,1.016438762213265,1.019206655568443,0.002767893355179,0.003515149986493
m1069481,b,1.014355046734447,1.013123850627260,0.001231196107188,0.001258964092969
m1069481,c,1.023995004940504,1.024024090458329,0.000029085517824,0.000846434704064
m1026377,a,0.995088347730332,0.996840779056962,0.001752431326631,0.002059960207814
l3048210,a,0.995025852359274,0.996778402680194,0.001752550320920,0.002060056380064
e182722,a,1.013201277595642,1.016006814364025,0.002805536768383,0.003551256383642
m1026331,a,0.996571933081480,0.998317377301394,0.001745444219914,0.002052977300396
m1026331,b,0.985269643658332,0.984739467810597,0.000530175847735,0.000555201137530
m1026331,c,1.030433465272482,1.030523933474806,0.000090468202324,0.000351035476685
l3214055,c,1.030419890597347,1.030510399934741,0.000090509337394,0.000351026488222
l2936279,a,0.990855189006656,0.992064226722547,0.001209037715891,0.001549750148077
l2936279,b,0.991532105754267,0.991113959099446,0.000418146654821,0.000441356438111
l2936279,c,1.026981260278631,1.027003017135461,0.000021756856829,0.000257330765866
m1026704,b,0.986799494678977,0.985539179157010,0.001260315521967,0.001283504829699
l2841634,b,0.986734679385668,0.985474273350585,0.001260406035084,0.001283576074300
m1047386,b,1.003525685660348,1.003021474235019,0.000504211425329,0.000530856670168
m1089115,a,1.035183506031862,1.036697174865011,0.001513668833149,0.001847406954016
m1089115,b,1.031798135234641,1.031317924545166,0.000480210689475,0.000506562295866
m1089115,c,1.034372644262491,1.034439603244196,0.000066958981705,0.000300932633775
m1026486,b,1.000151307706993,0.999651027154316,0.000500280552676,0.000526839612341
l3010570,a,0.996651227220028,0.998396679256542,0.001745452036515,0.002053398865709
m1125968,a,0.966322266205561,0.967733253777602,0.001410987572041,0.001804921928735
m1125968,b,0.989190915580623,0.988634510711847,0.000556404868775,0.000582737623888
m1125968,c,1.036266222941820,1.036260321967261,0.000005900974559,0.000386209390159
m1069412,b,0.996785420662482,0.995533194676442,0.001252225986040,0.001277171939086
l2879061,b,0.996773354590428,0.995521136616324,0.001252217974105,0.001277163705439
m1142880,c,1.023787794310455,1.023785345672158,0.000002448638296,0.000028278609477
l2891575,c,1.023765627593775,1.023763245138978,0.000002382454797,0.000028297433944
m1026848,a,1.007933546143023,1.010754377749900,0.002820831606877,0.003609154427104
l2897793,a,0.997742013165207,1.000025044411368,0.002283031246160,0.002971334599329
m1069521,a,0.997710294450928,0.999993464891548,0.002283170440619,0.002971442623825
m1069175,a,1.030312525460252,1.031859994016145,0.001547468555893,0.001877299956865
m1069175,b,1.027252959358602,1.026765772300369,0.000487187058232,0.000513631818318
m1069175,c,1.032693511565675,1.032764848247313,0.000071336681638,0.000308453174408
l3197637,c,1.032682482823815,1.032753841745066,0.000071358921251,0.000308447041494
l3197635,b,0.992952768253752,0.991697667703490,0.001255100550261,0.001279480284727
l2804257,b,1.012558146238188,1.011262244362312,0.001295901875875,0.001324506855241
l2860485,b,1.012524752944914,1.011228857060395,0.001295895884520,0.001324497256388
l3235945,c,1.041339806468326,1.041337700997026,0.000002105471300,0.000555028017530
l2842330,c,1.041286778813199,1.041284671707924,0.000002107105274,0.000555000314913
l2804254,a,1.015040184505513,1.017793366648917,0.002753182143404,0.003495975954478
m1166370,c,1.040785471517764,1.040769714801612,0.000015756716151,0.000132460575644
m3763619,a,1.022072170278917,1.024788463554905,0.002716293275989,0.003487839121337
m3763619,b,1.028146149786616,1.026928797868900,0.001217351917716,0.001246661990026
m3763619,c,1.036332755911550,1.036352082872319,0.000019326960768,0.000854283930655
m3037540,c,1.015271387668763,1.015303381343256,0.000031993674493,0.000237727296769
l2710509,c,1.015269960840788,1.015301956128823,0.000031995288035,0.000237726236674
l2763072,b,0.979727276846991,0.979195766660425,0.000531510186566,0.000555958985169
l3010560,a,1.016893178381553,1.019654070436303,0.002760892054750,0.003508289762739
l3010560,b,1.016705393870320,1.015477602872690,0.001227790997630,0.001255952414061
l3010560,c,1.025097939149214,1.025125878287126,0.000027939137912,0.000845755323832
l3254219,c,1.031671789297933,1.031752969025107,0.000081179727174,0.000337257674938
l3254220,c,1.031654916052863,1.031736096829068,0.000081180776204,0.000337251722866
m1026648,a,0.995590575179601,0.998480622481768,0.002890047302168,0.003607008206550
m1089112,a,1.033829688427111,1.035353841365096,0.001524152937984,0.001856679555653
m1089112,b,1.030251912127717,1.029769773969027,0.000482138158690,0.000508493538559
m1089112,c,1.033024423805085,1.033093863161157,0.000069439356071,0.000302894316282
l2691951,c,1.032454332858331,1.032524610354165,0.000070277495834,0.000302622883133
m1026327,b,0.983555181500331,0.983024752196614,0.000530429303717,0.000555303144815
l2841636,b,0.982676537689426,0.982145945057201,0.000530592632225,0.000555381815134
l2990826,a,0.953934269815753,0.955445012485612,0.001510742669860,0.001929546682396
l2990826,b,0.980793992729708,0.980178252243696,0.000615740486012,0.000642420644497
l2990826,c,1.034899255972035,1.034895700559554,0.000003555412481,0.000433332473266
l2911069,b,1.003906544940656,1.002626940582719,0.001279604357937,0.001306603595994
l2948732,b,1.003872344635024,1.002592793356999,0.001279551278025,0.001306553469657
m1069312,c,1.017540862192212,1.017574159146189,0.000033296953977,0.000850832739312
l2876797,a,1.016142145833095,1.018888525713530,0.002746379880434,0.003490927299116
l2876797,b,0.999710796812130,0.998486672757177,0.001224124054953,0.001250339734053
l2876797,c,1.042215373120631,1.042239939650764,0.000024566530133,0.000851130758285
l3254227,b,1.014745556343217,1.013742949138145,0.001002607205072,0.001031079720679
m3037455,c,1.036148925628791,1.036144796804740,0.000004128824051,0.000231689812573
l3217052,c,1.036122542425027,1.036118413008157,0.000004129416870,0.000231684130708
l2822861,a,1.014357441578450,1.017149010779828,0.002791569201378,0.003538269884359
m1047724,a,1.019488986657814,1.022216895462685,0.002727908804871,0.003479940629891
m1047724,b,1.011789227145887,1.010572037368785,0.001217189777101,0.001244694425378
m1047724,c,1.039414219620669,1.039437160024248,0.000022940403579,0.000848371629827
m1047722,a,1.019267085966818,1.021996283007850,0.002729197041032,0.003480750479468
m1047722,b,1.011068285194500,1.009850643188210,0.001217642006290,0.001245071757296
m1047722,c,1.039557469416585,1.039580531945505,0.000023062528921,0.000848556233138
d5534969-2_int,a,1.005348354384106,1.007550175013944,0.002201820629838,0.002864160512032
d5534969-2_int,b,1.020146632764765,1.019148404116929,0.000998228647836,0.001028146256378
d5534969-2_int,c,1.043544629051653,1.043549399050106,0.000004769998453,0.000716421163468
e182729,a,1.005303851839770,1.007506001502782,0.002202149663012,0.002864511944730
e182729,b,1.020101033609989,1.019102769087469,0.000998264522520,0.001028169329535
e182729,c,1.043516861135387,1.043521640941060,0.000004779805673,0.000716387475799
m1047699,a,1.021337060670018,1.024054241436872,0.002717180766854,0.003473182098703
m1047699,b,1.017612825146596,1.016399472552935,0.001213352593661,0.001241464671681
m1047699,c,1.038377982232652,1.038399761420924,0.000021779188271,0.000846924296453
l2935554,a,1.020866280659303,1.023586189476015,0.002719908816712,0.003474920756372
l2935554,b,1.016268517492265,1.015054216207995,0.001214301284270,0.001242278279666
l2935554,c,1.038605947874784,1.038628009159231,0.000022061284447,0.000847309708887
m1047292,a,1.000342635501629,1.002072100893089,0.001729465391460,0.002039465687907
m1047292,b,0.991806374813410,0.991279712890346,0.000526661923064,0.000552192642181
m1047292,c,1.029300731715014,1.029389390120643,0.000088658405629,0.000347911391637
l2766750,c,1.029268105309968,1.029356766020994,0.000088660711026,0.000347900405381
l3649300,a,1.018234536502901,1.020974842243953,0.002740305741052,0.003515705116660
l3066804,a,0.997282603681886,0.999567229230779,0.002284625548893,0.002972679241609
m3327098,b,0.988274244339846,0.987045268799348,0.001228975540498,0.001253842236812
l2691943,b,0.988229860255419,0.987000962255050,0.001228898000369,0.001253768470415
m1125904,a,0.996428202246075,0.997583842344105,0.001155640098030,0.001494011078136
l3085388,b,0.973323638755558,0.972789985365523,0.000533653390036,0.000557346169328
l3233413,b,0.980499398680231,0.979884172317258,0.000615226362974,0.000641687620946
l3122827,a,0.998457093537214,1.001329323839663,0.002872230302448,0.003591798270953
l2954355,a,0.998116953612500,1.000991313279234,0.002874359666734,0.003593616664157
l2952003,a,0.954702667893769,0.956210169737295,0.001507501843526,0.001926989387059
l2952003,b,0.981578295282311,0.980963497233673,0.000614798048638,0.000641533024102
l2952003,c,1.035538052964522,1.035534031557083,0.000004021407438,0.000433041758467
l3008237,c,1.044789495158658,1.044795402550341,0.000005907391683,0.000717975247234
m1125978,b,0.989722746937535,0.989173014310933,0.000549732626602,0.000575949264190
m1026706,a,0.998485644963987,1.001359028844142,0.002873383880155,0.003592326425205
m1026706,b,1.023971641478159,1.022722666075265,0.001248975402895,0.001279778376387
m1026706,c,1.016947012564294,1.016978660863063,0.000031648298769,0.000863014477720
l3141399,c,1.027162562783994,1.027240499205662,0.000077936421668,0.000300227792780
m3763624,a,1.022082921416956,1.024799214013038,0.002716292596083,0.003487833562163
m3763624,b,1.028139795101765,1.026922453752453,0.001217341349312,0.001246655369255
m3763624,c,1.036296635822624,1.036315961975627,0.000019326153003,0.000854254271405
m1142839,a,0.996650438569513,0.997751480936931,0.001101042367418,0.001412869014718
m1142839,b,1.004960378655530,1.004585664700067,0.000374713955463,0.000395987620621
m1142839,c,1.036514719760049,1.036509637232105,0.000005082527944,0.000231049075575
l3067507,c,1.036505340072829,1.036500257328252,0.000005082744577,0.000231047222169
m1142826,b,1.002682607589707,1.002298547862235,0.000384059727472,0.000405791541023
l2692664,c,1.025527133683148,1.025547001720659,0.000019868037511,0.000243359512209
l2823544,a,0.940493968377730,0.942173024379719,0.001679056001990,0.002156454978879
l2973155,a,1.016660997626584,1.019404568688467,0.002743571061883,0.003489331521188
l2973155,b,1.001771018280079,1.000548001722885,0.001223016557194,0.001249454224129
l2973155,c,1.041707418016453,1.041731752946683,0.000024334930230,0.000850707896547
l3216346,a,0.997611765271182,1.000506505545777,0.002894740274595,0.003671458262704
l2858163,a,0.997435982956475,1.000331732857681,0.002895749901206,0.003672280319361
l2973149,b,0.989554463144302,0.988330709133594,0.001223754010709,0.001249218692641
l3086079,b,1.026299337203702,1.026127383084696,0.000171954119006,0.000181441080102
l2710530,b,1.013438347595165,1.012435419676634,0.001002927918531,0.001031256540539
m4113348,a,1.013851426125085,1.016658887769662,0.002807461644576,0.003552936344778
m4113348,c,1.017571557094201,1.017604824787043,0.000033267692842,0.000850927067709
l2879074,a,0.994125483570554,0.997024591380535,0.002899107809981,0.003614801502342
e193509,a,0.996672584053817,0.997771153679625,0.001098569625807,0.001409201679936
e193509,b,1.005260093153933,1.004886653596399,0.000373439557534,0.000394655565850
e193509,c,1.036742211791309,1.036736450437417,0.000005761353892,0.000230429130622
m1047794,b,0.993543377469458,0.992316330208568,0.001227047260889,0.001252525917608
l3027116,a,1.002557458908484,1.004276884961697,0.001719426053213,0.002030769737682
l3027116,b,0.995048972888870,0.994524421543843,0.000524551345026,0.000550328465799
l3027116,c,1.029212796737387,1.029300016094637,0.000087219357250,0.000346026627608
l2929261,a,1.021315879503143,1.024033185184244,0.002717305681102,0.003473307932724
m1166375,a,1.007013431273383,1.007964931205142,0.000951499931759,0.001221612634674
m1166375,b,1.014315770952700,1.014023045005793,0.000292725946907,0.000309968587125
m1166375,c,1.039751315740730,1.039737853063291,0.000013462677439,0.000166649015872
l2973156,b,0.999714195564871,0.998463639612060,0.001250555952811,0.001275892116107
m1069311,a,1.013880118302451,1.016687404789546,0.002807286487095,0.003552797429752
m1069311,b,1.001078238223282,0.999828959381493,0.001249278841790,0.001275242371306
m1069311,c,1.017679853256988,1.017713152023675,0.000033298766686,0.000850950177869
m1069208,c,1.029154249452454,1.029229686287501,0.000075436835046,0.000301068897625
l2691945,c,1.029145519667286,1.029220956987050,0.000075437319764,0.000301066350195
m1026468,b,1.000406180035331,0.999905647754515,0.000500532280816,0.000527116933644
m1026662,a,0.997509318928683,1.000392085174315,0.002882766245633,0.003601571402783
m1026662,b,1.024143237626397,1.022891817618198,0.001251420008199,0.001282480932695
m1026662,c,1.015212316454753,1.015244781190738,0.000032464735985,0.000864157009361
m1026941,a,1.010991368378627,1.013782978459007,0.002791610080380,0.003569992076682
m1026942,a,1.010976776534966,1.013768480503682,0.002791703968716,0.003570067325748
m1047713,a,1.020614307217292,1.023335683228533,0.002721376011241,0.003475852654415
m1047713,b,1.015531581855059,1.014316767928632,0.001214813926428,0.001242716632629
m1047713,c,1.038731173564172,1.038753390238433,0.000022216674261,0.000847513927480
m1047720,a,1.020044968296288,1.022769683361801,0.002724715065513,0.003477936406350
m1047720,b,1.013609340604737,1.012393322046375,0.001216018558362,0.001243718443039
m1047720,c,1.039049736678157,1.039072358374740,0.000022621696582,0.000847915786564
m1108298,a,0.995998423498216,0.997171363526083,0.001172940027867,0.001519522222868
m1108298,b,0.997186803250662,0.996774244195804,0.000412559054858,0.000435441627893
m1108298,c,1.031212260790407,1.031226481918817,0.000014221128410,0.000251209243911
e183472,a,0.957531506745068,0.959031420820900,0.001499914075833,0.001921964638472
e183472,b,0.984988383853280,0.984377286545792,0.000611097307488,0.000638227171078
e183472,c,1.036325645936269,1.036320822069839,0.000004823866430,0.000432127062141
l2989566,a,0.956216175029358,0.957719180170924,0.001503005141565,0.001923934382106
l2989566,b,0.983543009509708,0.982930350447715,0.000612659061992,0.000639614536083
l2989566,c,1.036168320659061,1.036163741193947,0.000004579465114,0.000432574963755
m1010004,a,0.986902984112207,0.989892335789252,0.002989351677045,0.003755263166617
m1089188,c,1.008450792958588,1.008489041642312,0.000038248683724,0.000234724307873
l2972704,c,1.031482421623579,1.031554137011913,0.000071715388334,0.000302142468983
l3263051,c,1.031454450646901,1.031526167488365,0.000071716841465,0.000302133641804
l2897776,c,1.027196107113211,1.027274153334453,0.000078046221242,0.000300227247617
l2767414,c,1.027467187958340,1.027484500594883,0.000017312636543,0.000244577573247
m1069572,b,1.013452126996791,1.012449174264034,0.001002952732756,0.001031278992310
l3066826,b,1.013405618517729,1.012402615420299,0.001003003097430,0.001031319569998
m1166356,a,1.008916724147702,1.009839491202309,0.000922767054607,0.001185537429734
l2730187,a,1.008891347311449,1.009814139400904,0.000922792089455,0.001185553067594
l3122825,a,0.995777889690137,0.997527116113164,0.001749226423027,0.002056921813531
l2991920,a,0.995769232260175,0.997518498137725,0.001749265877550,0.002056964923832
l3122826,a,1.010049943263010,1.011732168045880,0.001682224782871,0.001997912510810
m1047358,a,1.010003314388467,1.011685723064551,0.001682408676084,0.001998082741194
l3142078,b,1.032120431570837,1.031653101210362,0.000467330360475,0.000494806933709
l2879752,b,1.032091764702217,1.031624500697955,0.000467264004262,0.000494750565546
m1027023,a,0.993677086649009,0.996617285529116,0.002940198880107,0.003711251284362
m1027023,b,1.012519179018312,1.011222303287052,0.001296875731260,0.001325528151745
m1027023,c,1.023899429459439,1.023927134109209,0.000027704649771,0.000911044599888
l3122815,b,1.012502856181507,1.011206005858926,0.001296850322581,0.001325503827186
l2724120,c,1.030724201110866,1.030796039503223,0.000071838392357,0.000301911995012
l2729429,a,1.008409203669479,1.011214117455088,0.002804913785609,0.003536121436579
...